opendss_networks/LV17_279bus/Groundings.dss
new reactor.tx_busgrounding_B451 phases=1 bus1=B451.4 bus2=B451.0 r=0.3 x=0.0
new reactor.loadbusgrounding_B2894 phases=1 bus1=B2894.4 bus2=B2894.0 r=10.0 x=0.0
new reactor.loadbusgrounding_B1848 phases=1 bus1=B1848.4 bus2=B1848.0 r=10.0 x=0.0
new reactor.loadbusgrounding_B894 phases=1 bus1=B894.4 bus2=B894.0 r=10.0 x=0.0
new reactor.loadbusgrounding_B1987 phases=1 bus1=B1987.4 bus2=B1987.0 r=10.0 x=0.0
new reactor.loadbusgrounding_B2302 phases=1 bus1=B2302.4 bus2=B2302.0 r=10.0 x=0.0
new reactor.loadbusgrounding_B2304 phases=1 bus1=B2304.4 bus2=B2304.0 r=10.0 x=0.0
new reactor.loadbusgrounding_B379 phases=1 bus1=B379.4 bus2=B379.0 r=10.0 x=0.0
new reactor.loadbusgrounding_B513 phases=1 bus1=B513.4 bus2=B513.0 r=10.0 x=0.0
new reactor.loadbusgrounding_B2467 phases=1 bus1=B2467.4 bus2=B2467.0 r=10.0 x=0.0
new reactor.loadbusgrounding_B2968 phases=1 bus1=B2968.4 bus2=B2968.0 r=10.0 x=0.0
new reactor.loadbusgrounding_B1763 phases=1 bus1=B1763.4 bus2=B1763.0 r=10.0 x=0.0
new reactor.loadbusgrounding_B857 phases=1 bus1=B857.4 bus2=B857.0 r=10.0 x=0.0
new reactor.loadbusgrounding_B34 phases=1 bus1=B34.4 bus2=B34.0 r=10.0 x=0.0
new reactor.loadbusgrounding_B3026 phases=1 bus1=B3026.4 bus2=B3026.0 r=10.0 x=0.0
new reactor.loadbusgrounding_B1466 phases=1 bus1=B1466.4 bus2=B1466.0 r=10.0 x=0.0
new reactor.loadbusgrounding_B2064 phases=1 bus1=B2064.4 bus2=B2064.0 r=10.0 x=0.0
new reactor.loadbusgrounding_B2601 phases=1 bus1=B2601.4 bus2=B2601.0 r=10.0 x=0.0
new reactor.loadbusgrounding_B2381 phases=1 bus1=B2381.4 bus2=B2381.0 r=10.0 x=0.0
new reactor.loadbusgrounding_B970 phases=1 bus1=B970.4 bus2=B970.0 r=10.0 x=0.0
new reactor.loadbusgrounding_B2079 phases=1 bus1=B2079.4 bus2=B2079.0 r=10.0 x=0.0
new reactor.loadbusgrounding_B1262 phases=1 bus1=B1262.4 bus2=B1262.0 r=10.0 x=0.0
new reactor.loadbusgrounding_B727 phases=1 bus1=B727.4 bus2=B727.0 r=10.0 x=0.0
new reactor.loadbusgrounding_B1221 phases=1 bus1=B1221.4 bus2=B1221.0 r=10.0 x=0.0
new reactor.loadbusgrounding_B878 phases=1 bus1=B878.4 bus2=B878.0 r=10.0 x=0.0
new reactor.loadbusgrounding_B1707 phases=1 bus1=B1707.4 bus2=B1707.0 r=10.0 x=0.0
new reactor.loadbusgrounding_B21 phases=1 bus1=B21.4 bus2=B21.0 r=10.0 x=0.0
new reactor.loadbusgrounding_B1168 phases=1 bus1=B1168.4 bus2=B1168.0 r=10.0 x=0.0
new reactor.loadbusgrounding_B2557 phases=1 bus1=B2557.4 bus2=B2557.0 r=10.0 x=0.0
new reactor.loadbusgrounding_B2494 phases=1 bus1=B2494.4 bus2=B2494.0 r=10.0 x=0.0
new reactor.loadbusgrounding_B2999 phases=1 bus1=B2999.4 bus2=B2999.0 r=10.0 x=0.0
new reactor.loadbusgrounding_B2182 phases=1 bus1=B2182.4 bus2=B2182.0 r=10.0 x=0.0
new reactor.loadbusgrounding_B1972 phases=1 bus1=B1972.4 bus2=B1972.0 r=10.0 x=0.0
new reactor.loadbusgrounding_B581 phases=1 bus1=B581.4 bus2=B581.0 r=10.0 x=0.0
new reactor.loadbusgrounding_B2085 phases=1 bus1=B2085.4 bus2=B2085.0 r=10.0 x=0.0
new reactor.loadbusgrounding_B2257 phases=1 bus1=B2257.4 bus2=B2257.0 r=10.0 x=0.0
new reactor.loadbusgrounding_B2553 phases=1 bus1=B2553.4 bus2=B2553.0 r=10.0 x=0.0
new reactor.loadbusgrounding_B2166 phases=1 bus1=B2166.4 bus2=B2166.0 r=10.0 x=0.0
new reactor.loadbusgrounding_B2523 phases=1 bus1=B2523.4 bus2=B2523.0 r=10.0 x=0.0
new reactor.loadbusgrounding_B3183 phases=1 bus1=B3183.4 bus2=B3183.0 r=10.0 x=0.0
new reactor.loadbusgrounding_B1986 phases=1 bus1=B1986.4 bus2=B1986.0 r=10.0 x=0.0
new reactor.loadbusgrounding_B331 phases=1 bus1=B331.4 bus2=B331.0 r=10.0 x=0.0
new reactor.loadbusgrounding_B1782 phases=1 bus1=B1782.4 bus2=B1782.0 r=10.0 x=0.0
new reactor.loadbusgrounding_B2772 phases=1 bus1=B2772.4 bus2=B2772.0 r=10.0 x=0.0
new reactor.loadbusgrounding_B2169 phases=1 bus1=B2169.4 bus2=B2169.0 r=10.0 x=0.0
new reactor.loadbusgrounding_B2167 phases=1 bus1=B2167.4 bus2=B2167.0 r=10.0 x=0.0
new reactor.loadbusgrounding_B2135 phases=1 bus1=B2135.4 bus2=B2135.0 r=10.0 x=0.0
new reactor.loadbusgrounding_B769 phases=1 bus1=B769.4 bus2=B769.0 r=10.0 x=0.0
new reactor.loadbusgrounding_B593 phases=1 bus1=B593.4 bus2=B593.0 r=10.0 x=0.0
new reactor.loadbusgrounding_B2446 phases=1 bus1=B2446.4 bus2=B2446.0 r=10.0 x=0.0
new reactor.loadbusgrounding_B1627 phases=1 bus1=B1627.4 bus2=B1627.0 r=10.0 x=0.0
new reactor.loadbusgrounding_B687 phases=1 bus1=B687.4 bus2=B687.0 r=10.0 x=0.0
new reactor.loadbusgrounding_B2132 phases=1 bus1=B2132.4 bus2=B2132.0 r=10.0 x=0.0
new reactor.loadbusgrounding_B472 phases=1 bus1=B472.4 bus2=B472.0 r=10.0 x=0.0
new reactor.loadbusgrounding_B2253 phases=1 bus1=B2253.4 bus2=B2253.0 r=10.0 x=0.0
new reactor.loadbusgrounding_B151 phases=1 bus1=B151.4 bus2=B151.0 r=10.0 x=0.0
new reactor.loadbusgrounding_B549 phases=1 bus1=B549.4 bus2=B549.0 r=10.0 x=0.0
new reactor.loadbusgrounding_B3176 phases=1 bus1=B3176.4 bus2=B3176.0 r=10.0 x=0.0
new reactor.loadbusgrounding_B3336 phases=1 bus1=B3336.4 bus2=B3336.0 r=10.0 x=0.0
new reactor.loadbusgrounding_B3342 phases=1 bus1=B3342.4 bus2=B3342.0 r=10.0 x=0.0
new reactor.loadbusgrounding_B500 phases=1 bus1=B500.4 bus2=B500.0 r=10.0 x=0.0
new reactor.loadbusgrounding_B2951 phases=1 bus1=B2951.4 bus2=B2951.0 r=10.0 x=0.0
new reactor.loadbusgrounding_B1289 phases=1 bus1=B1289.4 bus2=B1289.0 r=10.0 x=0.0
new reactor.loadbusgrounding_B2318 phases=1 bus1=B2318.4 bus2=B2318.0 r=10.0 x=0.0
new reactor.loadbusgrounding_B3386 phases=1 bus1=B3386.4 bus2=B3386.0 r=10.0 x=0.0
new reactor.loadbusgrounding_B2851 phases=1 bus1=B2851.4 bus2=B2851.0 r=10.0 x=0.0
new reactor.loadbusgrounding_B2505 phases=1 bus1=B2505.4 bus2=B2505.0 r=10.0 x=0.0
new reactor.loadbusgrounding_B780 phases=1 bus1=B780.4 bus2=B780.0 r=10.0 x=0.0
new reactor.loadbusgrounding_B778 phases=1 bus1=B778.4 bus2=B778.0 r=10.0 x=0.0
new reactor.loadbusgrounding_B1494 phases=1 bus1=B1494.4 bus2=B1494.0 r=10.0 x=0.0
new reactor.loadbusgrounding_B2245 phases=1 bus1=B2245.4 bus2=B2245.0 r=10.0 x=0.0
new reactor.loadbusgrounding_B2662 phases=1 bus1=B2662.4 bus2=B2662.0 r=10.0 x=0.0
new reactor.loadbusgrounding_B1959 phases=1 bus1=B1959.4 bus2=B1959.0 r=10.0 x=0.0
new reactor.loadbusgrounding_B705 phases=1 bus1=B705.4 bus2=B705.0 r=10.0 x=0.0
new reactor.loadbusgrounding_B809 phases=1 bus1=B809.4 bus2=B809.0 r=10.0 x=0.0
new reactor.loadbusgrounding_B1527 phases=1 bus1=B1527.4 bus2=B1527.0 r=10.0 x=0.0
new reactor.loadbusgrounding_B235 phases=1 bus1=B235.4 bus2=B235.0 r=10.0 x=0.0
new reactor.loadbusgrounding_B1294 phases=1 bus1=B1294.4 bus2=B1294.0 r=10.0 x=0.0
new reactor.loadbusgrounding_B473 phases=1 bus1=B473.4 bus2=B473.0 r=10.0 x=0.0
new reactor.loadbusgrounding_B1264 phases=1 bus1=B1264.4 bus2=B1264.0 r=10.0 x=0.0
new reactor.loadbusgrounding_B2479 phases=1 bus1=B2479.4 bus2=B2479.0 r=10.0 x=0.0
new reactor.loadbusgrounding_B38 phases=1 bus1=B38.4 bus2=B38.0 r=10.0 x=0.0
new reactor.loadbusgrounding_B2033 phases=1 bus1=B2033.4 bus2=B2033.0 r=10.0 x=0.0
new reactor.loadbusgrounding_B1743 phases=1 bus1=B1743.4 bus2=B1743.0 r=10.0 x=0.0
new reactor.loadbusgrounding_B2686 phases=1 bus1=B2686.4 bus2=B2686.0 r=10.0 x=0.0
new reactor.loadbusgrounding_B2281 phases=1 bus1=B2281.4 bus2=B2281.0 r=10.0 x=0.0
new reactor.loadbusgrounding_B1610 phases=1 bus1=B1610.4 bus2=B1610.0 r=10.0 x=0.0
new reactor.loadbusgrounding_B2500 phases=1 bus1=B2500.4 bus2=B2500.0 r=10.0 x=0.0
new reactor.loadbusgrounding_B1869 phases=1 bus1=B1869.4 bus2=B1869.0 r=10.0 x=0.0
new reactor.loadbusgrounding_B2858 phases=1 bus1=B2858.4 bus2=B2858.0 r=10.0 x=0.0
new reactor.loadbusgrounding_B2475 phases=1 bus1=B2475.4 bus2=B2475.0 r=10.0 x=0.0
new reactor.loadbusgrounding_B2393 phases=1 bus1=B2393.4 bus2=B2393.0 r=10.0 x=0.0
new reactor.loadbusgrounding_B540 phases=1 bus1=B540.4 bus2=B540.0 r=10.0 x=0.0
new reactor.loadbusgrounding_B2412 phases=1 bus1=B2412.4 bus2=B2412.0 r=10.0 x=0.0
new reactor.loadbusgrounding_B3209 phases=1 bus1=B3209.4 bus2=B3209.0 r=10.0 x=0.0
new reactor.loadbusgrounding_B424 phases=1 bus1=B424.4 bus2=B424.0 r=10.0 x=0.0
new reactor.loadbusgrounding_B1072 phases=1 bus1=B1072.4 bus2=B1072.0 r=10.0 x=0.0
new reactor.loadbusgrounding_B317 phases=1 bus1=B317.4 bus2=B317.0 r=10.0 x=0.0
new reactor.loadbusgrounding_B826 phases=1 bus1=B826.4 bus2=B826.0 r=10.0 x=0.0
new reactor.loadbusgrounding_B2912 phases=1 bus1=B2912.4 bus2=B2912.0 r=10.0 x=0.0
new reactor.loadbusgrounding_B2719 phases=1 bus1=B2719.4 bus2=B2719.0 r=10.0 x=0.0
new reactor.loadbusgrounding_B869 phases=1 bus1=B869.4 bus2=B869.0 r=10.0 x=0.0
new reactor.loadbusgrounding_B873 phases=1 bus1=B873.4 bus2=B873.0 r=10.0 x=0.0
new reactor.loadbusgrounding_B1492 phases=1 bus1=B1492.4 bus2=B1492.0 r=10.0 x=0.0
new reactor.loadbusgrounding_B1860 phases=1 bus1=B1860.4 bus2=B1860.0 r=10.0 x=0.0
new reactor.loadbusgrounding_B1067 phases=1 bus1=B1067.4 bus2=B1067.0 r=10.0 x=0.0
new reactor.loadbusgrounding_B3331 phases=1 bus1=B3331.4 bus2=B3331.0 r=10.0 x=0.0
new reactor.loadbusgrounding_B2852 phases=1 bus1=B2852.4 bus2=B2852.0 r=10.0 x=0.0
new reactor.loadbusgrounding_B1870 phases=1 bus1=B1870.4 bus2=B1870.0 r=10.0 x=0.0
new reactor.loadbusgrounding_B1258 phases=1 bus1=B1258.4 bus2=B1258.0 r=10.0 x=0.0
new reactor.loadbusgrounding_B919 phases=1 bus1=B919.4 bus2=B919.0 r=10.0 x=0.0
new reactor.loadbusgrounding_B890 phases=1 bus1=B890.4 bus2=B890.0 r=10.0 x=0.0
new reactor.loadbusgrounding_B1082 phases=1 bus1=B1082.4 bus2=B1082.0 r=10.0 x=0.0
new reactor.loadbusgrounding_B78 phases=1 bus1=B78.4 bus2=B78.0 r=10.0 x=0.0
new reactor.loadbusgrounding_B527 phases=1 bus1=B527.4 bus2=B527.0 r=10.0 x=0.0
new reactor.loadbusgrounding_B497 phases=1 bus1=B497.4 bus2=B497.0 r=10.0 x=0.0
new reactor.loadbusgrounding_B228 phases=1 bus1=B228.4 bus2=B228.0 r=10.0 x=0.0
new reactor.loadbusgrounding_B123 phases=1 bus1=B123.4 bus2=B123.0 r=10.0 x=0.0
new reactor.loadbusgrounding_B664 phases=1 bus1=B664.4 bus2=B664.0 r=10.0 x=0.0
new reactor.loadbusgrounding_B1273 phases=1 bus1=B1273.4 bus2=B1273.0 r=10.0 x=0.0
new reactor.loadbusgrounding_B1589 phases=1 bus1=B1589.4 bus2=B1589.0 r=10.0 x=0.0
new reactor.loadbusgrounding_B297 phases=1 bus1=B297.4 bus2=B297.0 r=10.0 x=0.0
new reactor.loadbusgrounding_B2136 phases=1 bus1=B2136.4 bus2=B2136.0 r=10.0 x=0.0
new reactor.loadbusgrounding_B1241 phases=1 bus1=B1241.4 bus2=B1241.0 r=10.0 x=0.0
new reactor.loadbusgrounding_B544 phases=1 bus1=B544.4 bus2=B544.0 r=10.0 x=0.0
new reactor.loadbusgrounding_B1011 phases=1 bus1=B1011.4 bus2=B1011.0 r=10.0 x=0.0
new reactor.loadbusgrounding_B2435 phases=1 bus1=B2435.4 bus2=B2435.0 r=10.0 x=0.0
new reactor.loadbusgrounding_B2320 phases=1 bus1=B2320.4 bus2=B2320.0 r=10.0 x=0.0
new reactor.loadbusgrounding_B154 phases=1 bus1=B154.4 bus2=B154.0 r=10.0 x=0.0
new reactor.loadbusgrounding_B2272 phases=1 bus1=B2272.4 bus2=B2272.0 r=10.0 x=0.0
new reactor.loadbusgrounding_B108 phases=1 bus1=B108.4 bus2=B108.0 r=10.0 x=0.0
new reactor.loadbusgrounding_B2649 phases=1 bus1=B2649.4 bus2=B2649.0 r=10.0 x=0.0
new reactor.loadbusgrounding_B74 phases=1 bus1=B74.4 bus2=B74.0 r=10.0 x=0.0
new reactor.loadbusgrounding_B2748 phases=1 bus1=B2748.4 bus2=B2748.0 r=10.0 x=0.0
new reactor.loadbusgrounding_B3182 phases=1 bus1=B3182.4 bus2=B3182.0 r=10.0 x=0.0
new reactor.loadbusgrounding_B2330 phases=1 bus1=B2330.4 bus2=B2330.0 r=10.0 x=0.0
new reactor.loadbusgrounding_B2619 phases=1 bus1=B2619.4 bus2=B2619.0 r=10.0 x=0.0
new reactor.loadbusgrounding_B413 phases=1 bus1=B413.4 bus2=B413.0 r=10.0 x=0.0
new reactor.loadbusgrounding_B2882 phases=1 bus1=B2882.4 bus2=B2882.0 r=10.0 x=0.0
new reactor.loadbusgrounding_B3243 phases=1 bus1=B3243.4 bus2=B3243.0 r=10.0 x=0.0
new reactor.loadbusgrounding_B1719 phases=1 bus1=B1719.4 bus2=B1719.0 r=10.0 x=0.0
new reactor.loadbusgrounding_B1833 phases=1 bus1=B1833.4 bus2=B1833.0 r=10.0 x=0.0
